src/examples/case14_twoarea/two_area_02pulim_1_6/results/res_branch_2.csv
branch,from_bus,to_bus,X,B,G,Bfr,Bto,p_from,p_to,q_from,q_to,p_loss,q_loss,s_from,s_to,rate_a,ang_deg,angmin,angmax
7,4,5,0.07018333333333335,-13.750861129582134,2.6156351851805475,2.1932760944652524e-15,-2.8444057051713997e-21,0.07329291481925423,-0.07272399705844447,0.18608642716233162,-0.18309552492231815,0.0005689177608097645,0.002990902240013471,0.20000002434185904,0.19700952006117844,0.2,0.1648180498884084,-60.0001403060998,60.0001403060998
4,2,4,0.2938666666666667,-3.274849999726173,0.6475778135801438,0.028333333333333335,0.028333333333333335,0.17664104718141735,-0.1743927383245811,-0.09144922780526027,0.050237181438121406,0.0022483088568362453,-0.04121204636713886,0.19890957949662982,0.18148443894503064,0.2,3.4423882725020256,-60.0001403060998,60.0001403060998
2,1,5,0.37173333333333336,-2.634446441553093,0.3829065851070089,0.04099999999996903,0.04099999999999675,0.1987309133995046,-0.19644164647699144,-0.02249520077752258,-0.03755914661888047,0.0022892669225131612,-0.06005434739640305,0.20000002499655456,0.20000002491332305,0.2,4.530384826663143,-60.0001403060998,60.0001403060998
3,2,3,0.32995,-2.970513743379066,0.42304725201206217,0.036499999999969134,0.036499999999938346,0.3211439554090032,-0.3158301966796909,-0.009251096153989127,-0.01916673256999236,0.005313758729312279,-0.02841782872398149,0.32127717453281707,0.31641124627949285,0.2,6.6865770111864675,-60.0001403060998,60.0001403060998
5,2,5,0.28980000000000006,-3.3223527358981673,0.6528916090731519,0.028833333333321193,0.028833333333333336,0.1943379699441731,-0.1919660999438159,-0.04725212615659843,0.006615258847533263,0.0023718700003572124,-0.04063686730906516,0.200000024970852,0.19208004887873956,0.2,3.6072063223904345,-60.0001403060998,60.0001403060998
6,3,4,0.28505,-3.3244369666260236,0.7815138436541418,0.010666666666666668,0.010666666666728376,-0.19136979331720583,0.19430038818896478,-0.054377196294832474,0.04740642517677534,0.0029305948717589514,-0.006970771118057134,0.1989454127924462,0.20000002499605743,0.2,-3.244188738684441,-60.0001403060998,60.0001403060998
1,1,2,0.09861666666666669,-9.763222778777191,1.918653954227162,0.044000000000000004,0.04399999999999292,0.16633430848514508,-0.1656458632900252,0.033946132135647414,-0.1120779100759379,0.0006884451951198745,-0.07813177794029048,0.16976289955759544,0.2000000248802178,0.2,0.9231785042727085,-60.0001403060998,60.0001403060998
